DATABASE C:\Program Files (x86)\USGS\Phreeqc Interactive 3.8.6-17100\database\CEMDATA18-31-03-2022-phaseVol.dat
SOLUTION 1
    temp      25.00
    pH        13.10
    units     mol/l
    Na        0.50000
    Si        0.00031
    Al        0.00073
    Ca        0.00233

SOLUTION 2
    temp      25.00
    pH        13.05
    units     mol/l
    Na        0.50000
    Si        0.00183
    Al        0.00486
    Ca        0.00020
SOLUTION 3
    temp      25.00
    pH        13.29
    units     mol/l
    Na        0.50000
    Si        0.00270
    Al        0.01275
    Ca        0.00044
EQUILIBRIUM_PHASES 1
    CO2(g)    -3.37   10

EQUILIBRIUM_PHASES 2
    CO2(g)    -3.37   10

EQUILIBRIUM_PHASES 3
    CO2(g)    -3.37   10

USE solution 1
USE equilibrium_phases 1
END

USE solution 2
USE equilibrium_phases 2
END

USE solution 3
USE equilibrium_phases 3
END